  
       XFOIL         Version 6.96
  
 Calculated polar for:                                                 
  
 1 1 Reynolds number fixed          Mach number fixed         
  
 xtrf =   1.000 (top)        1.000 (bottom)  
 Mach =   0.091     Re =     0.601 e 6     Ncrit =   9.000
  
   alpha    CL        CD       CDp       CM     Top_Xtr  Bot_Xtr
  ------ -------- --------- --------- -------- -------- --------
   3.934   1.0126   0.00897   0.00448  -0.1315   0.6818   0.8565
   4.410   1.0626   0.00906   0.00460  -0.1315   0.6725   0.8610
   4.909   1.1126   0.00916   0.00474  -0.1308   0.6616   0.8654
   5.517   1.1626   0.00931   0.00500  -0.1278   0.6406   0.8729
   7.447   1.2126   0.01149   0.00705  -0.0979   0.5175   0.9066
  15.498   1.3126   0.06595   0.06031  -0.0347   0.0186   1.0000
  18.169   1.3626   0.09478   0.09005  -0.0385   0.0110   1.0000
